Version 4
SHEET 1 880 680
WIRE 192 -32 144 -32
WIRE 192 64 192 -32
WIRE 80 96 -512 96
WIRE 384 96 336 96
WIRE 80 160 -272 160
WIRE 384 160 336 160
WIRE 80 224 -64 224
WIRE 400 224 336 224
WIRE -512 368 -512 224
WIRE -272 368 -272 288
WIRE -64 368 -64 352
WIRE 192 368 192 256
WIRE 400 368 400 352
FLAG -512 368 0
FLAG -272 368 0
FLAG 16 -32 0
FLAG -64 368 0
FLAG 384 96 V+
FLAG 384 160 V-
FLAG 192 368 0
FLAG 400 368 0
SYMBOL cktsym\\vsource -64 288 R0
WINDOW 123 0 0 Left 2
WINDOW 39 0 0 Left 2
SYMATTR Value 1.2V
SYMATTR InstName V1
SYMBOL cktsym\\vsource -512 160 R0
WINDOW 123 0 0 Left 2
WINDOW 39 0 0 Left 2
SYMATTR Value PWL(0 2V 1ms 3V)
SYMATTR InstName V2
SYMBOL cktsym\\vsource -272 224 R0
WINDOW 123 0 0 Left 2
WINDOW 39 0 0 Left 2
SYMATTR Value 2.5V
SYMATTR InstName V3
SYMBOL cktsym\\vsource 80 -32 R90
WINDOW 3 32 0 VTop 2
WINDOW 0 -32 0 VBottom 2
WINDOW 123 0 0 Left 2
WINDOW 39 0 0 Left 2
SYMATTR Value 5V
SYMATTR InstName V4
SYMBOL cktsym\\vsource 400 288 R0
WINDOW 123 0 0 Left 2
WINDOW 39 0 0 Left 2
SYMATTR Value 2.5V
SYMATTR InstName V5
SYMBOL CMFBDiffAmp 192 160 R0
SYMATTR InstName X1
TEXT -440 -56 Left 2 !.inc engr3426.sub
TEXT -440 -16 Left 2 !.tran 1ms
TEXT -440 24 Left 2 ;.step V5 1V 4V 0.5V
