Version 4
SHEET 1 2012 680
WIRE -432 -528 -432 -544
WIRE -272 -528 -432 -528
WIRE -16 -528 -272 -528
WIRE 144 -528 -16 -528
WIRE -432 -512 -432 -528
WIRE -272 -512 -272 -528
WIRE -16 -512 -16 -528
WIRE 144 -512 144 -528
WIRE -208 -464 -368 -464
WIRE 80 -464 -80 -464
WIRE -368 -448 -368 -464
WIRE -208 -448 -208 -464
WIRE -176 -448 -208 -448
WIRE -80 -448 -80 -464
WIRE -80 -448 -176 -448
WIRE 80 -448 80 -464
WIRE -272 -352 -272 -384
WIRE -176 -352 -176 -448
WIRE -176 -352 -272 -352
WIRE -16 -352 -16 -384
WIRE -16 -352 -96 -352
WIRE -432 -336 -432 -368
WIRE -368 -336 -432 -336
WIRE -432 -320 -432 -336
WIRE -272 -320 -272 -352
WIRE -16 -320 -16 -352
WIRE -368 -256 -368 -336
WIRE -96 -256 -96 -352
WIRE -96 -256 -208 -256
WIRE -80 -256 -96 -256
WIRE 160 -240 160 -256
WIRE 160 -240 128 -240
WIRE -432 -144 -432 -192
WIRE -368 -128 -368 -256
WIRE -336 -128 -368 -128
WIRE -368 -16 -368 -128
WIRE 128 -16 128 -240
WIRE 128 -16 -368 -16
FLAG 144 -384 Push_I
IOPIN 144 -384 Out
FLAG 224 -320 Pull_I
IOPIN 224 -320 Out
FLAG -432 -544 Vdd
IOPIN -432 -544 In
FLAG -432 -448 Vdd
IOPIN -432 -448 In
FLAG -272 -448 Vdd
IOPIN -272 -448 In
FLAG -16 -448 Vdd
IOPIN -16 -448 In
FLAG 144 -448 Vdd
IOPIN 144 -448 In
FLAG -432 -256 Neg
IOPIN -432 -256 In
FLAG -432 -144 Neg
IOPIN -432 -144 In
FLAG -272 -64 Neg
IOPIN -272 -64 In
FLAG -272 -128 Neg
IOPIN -272 -128 In
FLAG -272 -256 Neg
IOPIN -272 -256 In
FLAG -16 -256 Neg
IOPIN -16 -256 In
FLAG 224 -192 Neg
IOPIN 224 -192 In
FLAG -16 -192 Neg
IOPIN -16 -192 In
FLAG 224 -256 Neg
IOPIN 224 -256 In
SYMBOL cktsym\\nmos4 -16 -256 R0
SYMATTR InstName M1
SYMATTR Value2 l=1.2u w=120u
SYMBOL cktsym\\nmos4 -272 -256 M0
SYMATTR InstName M2
SYMATTR Value2 l=1.2u w=120u m=2
SYMBOL cktsym\\pmos4 -272 -448 M0
SYMATTR InstName M3
SYMATTR Value2 l=3u w=3u
SYMBOL cktsym\\pmos4 -16 -448 R0
SYMATTR InstName M4
SYMATTR Value2 l=3u w=3u
SYMBOL cktsym\\pmos4 -432 -448 M0
SYMATTR InstName M5
SYMATTR Value2 l=3u w=9u
SYMBOL cktsym\\pmos4 144 -448 R0
SYMATTR InstName M6
SYMATTR Value2 l=3u w=3.9u
SYMBOL cktsym\\nmos4 -432 -256 M0
SYMATTR InstName M7
SYMATTR Value2 l=120u w=1.2u
SYMBOL cktsym\\nmos4 224 -256 R0
SYMATTR InstName M8
SYMATTR Value2 l=3u w=3.9u
SYMBOL cktsym\\nmos4 -272 -128 R0
SYMATTR InstName M9
SYMATTR Value2 l=120u w=1.2u
SYMBOL cktsym\\ammeter1 -432 -384 R0
SYMATTR InstName V3
