Version 4
SHEET 1 880 680
WIRE -176 112 -176 80
WIRE -48 112 -80 112
WIRE 32 112 -48 112
WIRE 336 112 288 112
WIRE -48 128 -48 112
WIRE -80 144 -80 112
WIRE -80 144 -144 144
WIRE 32 176 0 176
WIRE 336 176 288 176
WIRE 384 176 384 144
WIRE 544 176 544 144
WIRE 0 256 0 176
WIRE 0 256 -48 256
WIRE -48 304 -48 256
WIRE -48 304 -144 304
WIRE 416 320 416 288
FLAG 384 176 0
FLAG 384 64 Vdd
FLAG 544 64 Vb
FLAG 544 176 0
FLAG 144 80 Vdd
FLAG 144 272 0
FLAG 32 240 Vb
FLAG 416 320 0
FLAG 416 208 Vdes
FLAG 288 240 Vdes
FLAG -176 112 0
FLAG -176 0 Vcmi
FLAG -144 224 Vcmi
SYMBOL CMFBDiffAmp 144 176 R0
SYMATTR InstName X1
SYMBOL voltage 384 48 R0
WINDOW 0 24 96 Left 2
WINDOW 3 24 16 Left 2
WINDOW 123 0 0 Left 2
WINDOW 39 0 0 Left 2
SYMATTR InstName V1
SYMATTR Value 5V
SYMBOL voltage 544 48 R0
WINDOW 0 24 96 Left 2
WINDOW 3 24 16 Left 2
WINDOW 123 0 0 Left 2
WINDOW 39 0 0 Left 2
SYMATTR InstName V3
SYMATTR Value 1.2V
SYMBOL voltage 416 192 R0
WINDOW 0 24 96 Left 2
WINDOW 3 24 16 Left 2
WINDOW 123 0 0 Left 2
WINDOW 39 0 0 Left 2
SYMATTR InstName V4
SYMATTR Value 2.5
SYMBOL voltage -176 -16 R0
WINDOW 0 24 96 Left 2
WINDOW 3 24 16 Left 2
WINDOW 123 0 0 Left 2
WINDOW 39 0 0 Left 2
SYMATTR InstName Vcmi
SYMATTR Value 3
SYMBOL cktsym\\vsource -48 192 R0
WINDOW 39 0 0 Left 2
SYMATTR Value PWL(0 -0.05 1m 0.05)
SYMATTR InstName Vdm
SYMATTR Value2 AC 1 0
SYMBOL res -160 128 R0
SYMATTR InstName R1
SYMATTR Value 1k
SYMBOL res -160 208 R0
SYMATTR InstName R2
SYMATTR Value 1k
TEXT -208 336 Left 2 !.tran 0 1m 0 1u
TEXT -96 56 Left 2 !*.step Vcmi 2 3 .2
TEXT -8 0 Left 2 !.inc engr3426.sub
