Version 4
SHEET 1 920 680
WIRE -32 -176 -128 -176
WIRE 192 -176 96 -176
WIRE 864 -176 864 -192
WIRE 864 -64 864 -96
WIRE -128 -32 -128 -176
WIRE -16 -32 -128 -32
WIRE 192 -32 192 -176
WIRE 192 -32 48 -32
WIRE -320 64 -320 32
WIRE -256 64 -288 64
WIRE -128 64 -128 -32
WIRE 192 64 192 -32
WIRE 192 64 144 64
WIRE -256 80 -256 64
WIRE -176 80 -176 64
WIRE -176 80 -256 80
WIRE -288 96 -288 64
WIRE -288 96 -352 96
WIRE 192 128 144 128
WIRE 240 128 240 96
WIRE 400 128 400 96
WIRE -256 240 -256 208
WIRE -176 240 -176 128
WIRE -176 240 -256 240
WIRE -256 256 -256 240
WIRE -256 256 -352 256
WIRE -128 272 -128 128
WIRE -16 272 -128 272
WIRE 48 272 32 272
WIRE 192 272 192 128
WIRE 192 272 48 272
WIRE 272 272 272 240
WIRE -128 432 -128 272
WIRE -48 432 -128 432
WIRE 192 432 192 272
WIRE 192 432 80 432
FLAG 240 128 0
FLAG 240 16 Vdd
FLAG 400 16 Vb
FLAG 400 128 0
FLAG 0 32 Vdd
FLAG 0 224 0
FLAG -112 192 Vb
FLAG 272 272 0
FLAG 272 160 Vdes
FLAG 144 192 Vdes
FLAG -320 64 0
FLAG -320 -48 Vcmi
FLAG -352 176 Vcmi
FLAG 32 -176 0
FLAG 32 -240 CLK3
FLAG 16 432 0
FLAG 16 368 CLK3
FLAG 864 -64 0
FLAG 864 -192 CLK3
SYMBOL CMFBDiffAmp 0 128 R0
SYMATTR InstName X1
SYMBOL voltage 240 0 R0
WINDOW 0 24 96 Left 2
WINDOW 3 24 16 Left 2
WINDOW 123 0 0 Left 2
WINDOW 39 0 0 Left 2
SYMATTR InstName V1
SYMATTR Value 5V
SYMBOL voltage 400 0 R0
WINDOW 0 24 96 Left 2
WINDOW 3 24 16 Left 2
WINDOW 123 0 0 Left 2
WINDOW 39 0 0 Left 2
SYMATTR InstName V2
SYMATTR Value 1.2V
SYMBOL voltage 272 144 R0
WINDOW 0 24 96 Left 2
WINDOW 3 24 16 Left 2
WINDOW 123 0 0 Left 2
WINDOW 39 0 0 Left 2
SYMATTR InstName V3
SYMATTR Value 2.5
SYMBOL voltage -320 -64 R0
WINDOW 0 24 96 Left 2
WINDOW 3 24 16 Left 2
WINDOW 123 0 0 Left 2
WINDOW 39 0 0 Left 2
SYMATTR InstName Vcmi1
SYMATTR Value 3
SYMBOL cktsym\\vsource -256 144 R0
WINDOW 39 0 0 Left 2
SYMATTR Value PWL(0 0 2u 0 2.1u 5 3u 5 3.1u 0 4u 0 4.1u 5 5u 5)
SYMATTR InstName Vdm1
SYMATTR Value2 AC 1 0
SYMBOL res -368 80 R0
SYMATTR InstName R1
SYMATTR Value 1k
SYMBOL res -368 160 R0
SYMATTR InstName R2
SYMATTR Value 1k
SYMBOL cap -112 48 R90
WINDOW 0 0 32 VBottom 2
WINDOW 3 32 32 VTop 2
SYMATTR InstName C1
SYMATTR Value 10p
SYMBOL cap -112 112 R90
WINDOW 0 0 32 VBottom 2
WINDOW 3 32 32 VTop 2
SYMATTR InstName C2
SYMATTR Value 10p
SYMBOL cap 48 -48 R90
WINDOW 0 0 32 VBottom 2
WINDOW 3 32 32 VTop 2
SYMATTR InstName C3
SYMATTR Value 2p
SYMBOL cap 48 256 R90
WINDOW 0 0 32 VBottom 2
WINDOW 3 32 32 VTop 2
SYMATTR InstName C4
SYMATTR Value 2p
SYMBOL cktsym\\nmos4 32 -176 R90
SYMATTR InstName M1
SYMATTR Value2 l=1.8um w=1.8um
SYMBOL cktsym\\nmos4 16 432 R90
SYMATTR InstName M2
SYMATTR Value2 l=1.8um w=1.8um
SYMBOL voltage 864 -192 R0
WINDOW 0 24 96 Left 2
WINDOW 3 -513 4 Left 2
WINDOW 123 0 0 Left 2
WINDOW 39 0 0 Left 2
SYMATTR InstName V4
SYMATTR Value PWL(0s 5V 0.1ms 5V 0.1001ms 0V)
TEXT -352 288 Left 2 !.tran 0 20u 0 1u
TEXT -240 8 Left 2 !*.step Vcmi 2 3 .2
TEXT -152 -48 Left 2 !.inc engr3426.sub
