Version 4
SHEET 1 880 724
WIRE 416 -272 176 -272
WIRE 688 -272 544 -272
WIRE 176 -128 176 -272
WIRE 448 -128 176 -128
WIRE 688 -128 688 -272
WIRE 688 -128 512 -128
WIRE -1040 -80 -1040 -112
WIRE -960 -80 -960 -112
WIRE -880 -80 -880 -112
WIRE -128 -64 -160 -64
WIRE 176 -64 176 -128
WIRE 176 -64 0 -64
WIRE 208 -64 176 -64
WIRE -592 -16 -592 -112
WIRE -544 -16 -592 -16
WIRE -448 -16 -448 -112
WIRE -448 -16 -496 -16
WIRE -544 48 -544 -16
WIRE -496 48 -496 -16
WIRE 480 64 480 -16
WIRE -160 96 -160 -64
WIRE -128 96 -160 96
WIRE 48 96 0 96
WIRE 368 96 48 96
WIRE 704 96 624 96
WIRE -624 128 -720 128
WIRE -224 128 -224 96
WIRE -224 128 -400 128
WIRE 208 160 208 -64
WIRE 368 160 208 160
WIRE 688 160 688 -128
WIRE 688 160 624 160
WIRE -624 192 -720 192
WIRE -224 192 -400 192
WIRE -224 224 -224 192
WIRE -128 224 -160 224
WIRE 48 224 48 96
WIRE 48 224 0 224
WIRE 368 224 352 224
WIRE 640 224 624 224
WIRE -1040 240 -1040 208
WIRE -512 320 -512 272
WIRE 480 320 480 256
WIRE -1040 368 -1040 352
WIRE -160 384 -160 224
WIRE -128 384 -160 384
WIRE 176 384 0 384
WIRE 208 384 208 160
WIRE 208 384 176 384
WIRE 176 416 176 384
WIRE 448 416 176 416
WIRE 704 416 704 96
WIRE 704 416 512 416
WIRE -1040 480 -1040 448
WIRE 176 544 176 416
WIRE 416 544 176 544
WIRE 704 544 704 416
WIRE 704 544 544 544
WIRE -1040 704 -1040 672
FLAG -512 320 0
FLAG 480 320 0
FLAG -1040 -80 0
FLAG -960 -80 0
FLAG -1040 480 0
FLAG -1040 240 0
FLAG -1040 -192 Vdd
FLAG -592 -192 Vdd
FLAG -448 -192 Vdd
FLAG 480 -16 Vdd
FLAG -64 384 0
FLAG -64 224 0
FLAG -64 96 0
FLAG -64 -64 0
FLAG -1040 128 CLK2
FLAG -1040 352 CLK3
FLAG -720 128 CLK2
FLAG -720 192 CLK3
FLAG -64 32 CLK2
FLAG -64 448 CLK2
FLAG -64 288 CLK3
FLAG -64 -128 CLK3
FLAG 640 224 Vcm
FLAG -960 -192 Vcm
FLAG -880 -192 Vb
FLAG -880 -80 0
FLAG 352 224 Vb
FLAG 480 -272 0
FLAG 480 544 0
FLAG -1040 704 0
FLAG -1040 592 CLK1
FLAG 480 -336 CLK1
FLAG 480 608 CLK1
SYMBOL CMFBDiffAmp 480 160 R0
SYMATTR InstName X1
SYMBOL Switched_PTAT -512 160 R0
SYMATTR InstName X2
SYMBOL voltage -1040 -208 R0
WINDOW 0 24 96 Left 2
WINDOW 3 24 16 Left 2
WINDOW 123 0 0 Left 2
WINDOW 39 0 0 Left 2
SYMATTR InstName V1
SYMATTR Value 5V
SYMBOL voltage -960 -208 R0
WINDOW 0 24 96 Left 2
WINDOW 3 24 16 Left 2
WINDOW 123 0 0 Left 2
WINDOW 39 0 0 Left 2
SYMATTR InstName V2
SYMATTR Value 2.5v
SYMBOL voltage -880 -208 R0
WINDOW 0 24 96 Left 2
WINDOW 3 24 16 Left 2
WINDOW 123 0 0 Left 2
WINDOW 39 0 0 Left 2
SYMATTR InstName V3
SYMATTR Value 1.2V
SYMBOL current -592 -192 R0
SYMATTR InstName I1
SYMBOL current -448 -192 R0
SYMATTR InstName I2
SYMBOL voltage -1040 352 R0
WINDOW 0 24 96 Left 2
WINDOW 3 -513 4 Left 2
WINDOW 123 0 0 Left 2
WINDOW 39 0 0 Left 2
SYMATTR InstName V4
SYMATTR Value PULSE(0V 5V 0.1ms 0.1us 0.1us .1ms .2ms 20)
SYMBOL voltage -1040 112 R0
WINDOW 0 24 96 Left 2
WINDOW 3 -465 24 Left 2
WINDOW 123 0 0 Left 2
WINDOW 39 0 0 Left 2
SYMATTR InstName V5
SYMATTR Value PULSE(0V 5V 0 0.1us 0.1us .1ms .2ms 20)
SYMBOL cap -160 80 R90
WINDOW 0 0 32 VBottom 2
WINDOW 3 32 32 VTop 2
SYMATTR InstName C1
SYMATTR Value 10p
SYMBOL cap -160 208 R90
WINDOW 0 0 32 VBottom 2
WINDOW 3 32 32 VTop 2
SYMATTR InstName C2
SYMATTR Value 10p
SYMBOL cap 512 -144 R90
WINDOW 0 0 32 VBottom 2
WINDOW 3 32 32 VTop 2
SYMATTR InstName C3
SYMATTR Value 2p
SYMBOL cap 512 400 R90
WINDOW 0 0 32 VBottom 2
WINDOW 3 32 32 VTop 2
SYMATTR InstName C4
SYMATTR Value 2p
SYMBOL cktsym\\nmos4 -64 96 R90
SYMATTR InstName M1
SYMATTR Value2 l=1.8um w=1.8um
SYMBOL cktsym\\nmos4 -64 -64 R90
SYMATTR InstName M2
SYMATTR Value2 l=1.8um w=1.8um
SYMBOL cktsym\\nmos4 -64 224 R270
SYMATTR InstName M3
SYMATTR Value2 l=1.8um w=1.8um
SYMBOL cktsym\\nmos4 -64 384 R270
SYMATTR InstName M4
SYMATTR Value2 l=1.8um w=1.8um
SYMBOL cktsym\\nmos4 480 -272 R90
SYMATTR InstName M5
SYMATTR Value2 l=1.8um w=1.8um
SYMBOL cktsym\\nmos4 480 544 R270
SYMATTR InstName M6
SYMATTR Value2 l=1.8um w=1.8um
SYMBOL voltage -1040 576 R0
WINDOW 0 24 96 Left 2
WINDOW 3 -465 24 Left 2
WINDOW 123 0 0 Left 2
WINDOW 39 0 0 Left 2
SYMATTR InstName V6
SYMATTR Value PWL(0s 5V 0.1ms 5V 0.1001ms 0V)
TEXT -1400 200 Left 2 !.include engr3426.sub
