Version 4
SHEET 1 880 680
WIRE 96 -128 -96 -128
WIRE 240 -128 96 -128
WIRE 144 0 96 0
WIRE 240 0 192 0
WIRE -96 16 -96 0
WIRE 144 80 144 0
WIRE 192 80 192 0
WIRE 64 160 -240 160
WIRE 432 160 288 160
WIRE 64 224 -80 224
WIRE 432 224 288 224
WIRE -80 320 -80 224
WIRE 176 336 176 304
WIRE -240 368 -240 288
WIRE -80 464 -80 448
FLAG 176 336 0
FLAG -96 16 0
FLAG -80 464 0
FLAG -240 368 0
SYMBOL Switched_PTAT 176 192 R0
SYMATTR InstName X1
SYMBOL cktsym\\isource 96 -64 R0
WINDOW 123 0 0 Left 2
WINDOW 39 0 0 Left 2
SYMATTR Value 2µa
SYMATTR InstName I1
SYMBOL cktsym\\isource 240 -64 R0
WINDOW 123 0 0 Left 2
WINDOW 39 0 0 Left 2
SYMATTR Value 34µa
SYMATTR InstName I2
SYMBOL cktsym\\vsource -96 -64 R0
WINDOW 123 0 0 Left 2
WINDOW 39 0 0 Left 2
SYMATTR Value 5
SYMATTR InstName V1
SYMBOL cktsym\\vsource -240 224 R0
WINDOW 3 -479 29 Left 2
WINDOW 0 -76 -9 Left 2
WINDOW 123 0 0 Left 2
WINDOW 39 0 0 Left 2
SYMATTR Value PULSE(0 5 0.5ms .1us .1us 0.5ms 1ms 30)
SYMATTR InstName V2
SYMBOL cktsym\\vsource -80 384 R0
WINDOW 123 0 0 Left 2
WINDOW 39 0 0 Left 2
SYMATTR Value PULSE(0 5 0ms 0.1us 0.1us 0.5ms 1ms 30)
SYMATTR InstName V3
TEXT -304 -272 Left 2 !.inc engr3426.sub
TEXT -304 -240 Left 2 !.tran 10ms
TEXT -296 -200 Left 2 !.step temp list 0 10 20 30 40 50 60 70 80 90 100
