Version 4
SHEET 1 880 680
WIRE 64 -336 64 -400
WIRE 64 -336 -48 -336
WIRE 176 -336 64 -336
WIRE 448 -336 448 -400
WIRE 448 -336 352 -336
WIRE 560 -336 448 -336
WIRE 176 -320 176 -336
WIRE 352 -320 352 -336
WIRE 192 -256 176 -256
WIRE 368 -256 352 -256
WIRE 112 -176 112 -256
WIRE 112 -176 -224 -176
WIRE 288 -176 288 -256
WIRE 288 -176 112 -176
WIRE 496 -160 -128 -160
WIRE -48 -144 -48 -336
WIRE 560 -144 560 -336
WIRE -128 -80 -128 -160
WIRE -128 -80 -224 -80
WIRE -112 -80 -128 -80
WIRE 32 -80 -48 -80
WIRE 496 -80 496 -160
WIRE 592 -80 560 -80
WIRE 112 -16 -48 -16
WIRE 560 0 560 -16
WIRE 560 0 368 0
WIRE 176 32 176 -192
WIRE 368 32 368 0
WIRE 368 32 176 32
WIRE 112 48 112 -16
WIRE 352 48 352 -192
WIRE 352 48 112 48
WIRE 736 48 352 48
WIRE 368 80 368 32
WIRE 736 80 368 80
WIRE 112 96 112 48
WIRE 368 96 368 80
WIRE 48 160 32 160
WIRE 304 160 288 160
WIRE 32 240 32 160
WIRE 64 240 32 240
WIRE 112 240 112 224
WIRE 112 240 64 240
WIRE 288 240 288 160
WIRE 320 240 288 240
WIRE 368 240 368 224
WIRE 368 240 320 240
WIRE 64 272 64 240
WIRE 320 272 320 240
FLAG 64 272 GND
IOPIN 64 272 In
FLAG 320 272 GND
IOPIN 320 272 In
FLAG 32 -80 GND
IOPIN 32 -80 In
FLAG 192 -256 GND
IOPIN 192 -256 In
FLAG 368 -256 GND
IOPIN 368 -256 In
FLAG 592 -80 GND
IOPIN 592 -80 In
FLAG -224 -80 CLK
IOPIN -224 -80 In
FLAG -224 -176 nCLK
IOPIN -224 -176 In
FLAG 64 -400 I_in
IOPIN 64 -400 In
FLAG 448 -400 NI_in
IOPIN 448 -400 In
FLAG 736 48 +dVbe
IOPIN 736 48 Out
FLAG 736 80 -dVbe
IOPIN 736 80 Out
SYMBOL cktsym\\nmos4 -48 -80 R0
SYMATTR InstName M1
SYMATTR Value2 l=1.8um w=1.8um
SYMBOL cktsym\\nmos4 176 -256 R0
SYMATTR InstName M2
SYMATTR Value2 l=1.8um w=1.8um
SYMBOL cktsym\\nmos4 352 -256 R0
SYMATTR InstName M3
SYMATTR Value2 l=1.8um w=1.8um
SYMBOL cktsym\\nmos4 560 -80 R0
SYMATTR InstName M4
SYMATTR Value2 l=1.8um w=1.8um
SYMBOL cktsym\\pnp 112 160 R0
SYMATTR InstName Q1
SYMBOL cktsym\\pnp 368 160 R0
SYMATTR InstName Q2
