Version 4
SHEET 1 2012 680
WIRE -144 -64 -144 -96
WIRE 16 -64 16 -96
WIRE 272 -64 272 -96
WIRE 432 -64 432 -96
WIRE 80 -16 -80 -16
WIRE 368 -16 208 -16
WIRE -80 0 -80 -16
WIRE 80 0 80 -16
WIRE 112 0 80 0
WIRE 208 0 208 -16
WIRE 208 0 112 0
WIRE 368 0 368 -16
WIRE 768 0 672 0
WIRE 1024 64 1024 16
WIRE 1024 64 992 64
WIRE 1184 64 1184 16
WIRE 1184 64 1152 64
WIRE 1344 64 1344 16
WIRE 1344 64 1312 64
WIRE 1504 64 1504 16
WIRE 1504 64 1472 64
WIRE 1904 80 1840 80
WIRE 16 96 16 64
WIRE 112 96 112 0
WIRE 112 96 16 96
WIRE 272 96 272 64
WIRE 272 96 192 96
WIRE 656 96 512 96
WIRE -144 112 -144 80
WIRE -80 112 -144 112
WIRE 512 112 512 96
WIRE -144 128 -144 112
WIRE 16 128 16 96
WIRE 272 128 272 96
WIRE 768 176 768 0
WIRE 960 176 960 -48
WIRE 960 176 768 176
WIRE 1088 176 1088 -48
WIRE 1104 176 1088 176
WIRE 1120 176 1120 -48
WIRE 1120 176 1104 176
WIRE 1248 176 1248 -48
WIRE 1264 176 1248 176
WIRE 1280 176 1280 -48
WIRE 1280 176 1264 176
WIRE 1408 176 1408 -48
WIRE 1424 176 1408 176
WIRE 1440 176 1440 -48
WIRE 1440 176 1424 176
WIRE 1568 176 1568 -48
WIRE 1584 176 1568 176
WIRE 1760 176 1584 176
WIRE -80 192 -80 112
WIRE 192 192 192 96
WIRE 192 192 80 192
WIRE 208 192 192 192
WIRE 448 208 448 192
WIRE 448 208 416 208
WIRE 768 208 768 176
WIRE 1104 208 1104 176
WIRE 1264 208 1264 176
WIRE 1424 208 1424 176
WIRE 1584 208 1584 176
WIRE 1760 208 1760 176
WIRE 1904 208 1904 80
WIRE 992 240 992 64
WIRE 1024 240 992 240
WIRE 1152 240 1152 64
WIRE 1184 240 1152 240
WIRE 1312 240 1312 64
WIRE 1344 240 1312 240
WIRE 1472 240 1472 64
WIRE 1504 240 1472 240
WIRE 1024 256 1024 240
WIRE 1024 256 704 256
WIRE 1040 256 1024 256
WIRE 1184 256 1184 240
WIRE 1184 256 1040 256
WIRE 1200 256 1184 256
WIRE 1344 256 1344 240
WIRE 1344 256 1200 256
WIRE 1360 256 1344 256
WIRE 1504 256 1504 240
WIRE 1504 256 1360 256
WIRE 1520 256 1504 256
WIRE 1696 256 1520 256
WIRE 1840 256 1696 256
WIRE 704 272 704 256
WIRE 1040 272 1040 256
WIRE 1200 272 1200 256
WIRE 1360 272 1360 256
WIRE 1520 272 1520 256
WIRE 1696 272 1696 256
WIRE 1840 272 1840 256
WIRE -144 304 -144 256
WIRE -80 320 -80 192
WIRE -48 320 -80 320
WIRE 704 368 704 272
WIRE 736 368 704 368
WIRE 768 368 768 336
WIRE 768 368 736 368
WIRE 1104 384 1104 336
WIRE 1264 384 1264 336
WIRE 1424 384 1424 336
WIRE 1584 384 1584 336
WIRE 1760 384 1760 336
WIRE 1808 384 1760 384
WIRE 1904 384 1904 336
WIRE 1904 384 1808 384
WIRE -80 432 -80 320
WIRE 416 432 416 208
WIRE 416 432 -80 432
WIRE 656 432 656 96
WIRE 672 432 656 432
WIRE 736 432 736 368
WIRE 672 448 672 432
WIRE 736 448 672 448
FLAG 16 192 0
FLAG 272 192 0
FLAG 272 0 Vdd
FLAG -144 0 Vdd
FLAG 432 0 Vdd
FLAG -144 192 0
FLAG -144 304 0
FLAG 512 192 0
FLAG 272 256 0
FLAG 512 256 0
FLAG 16 384 0
FLAG 16 320 0
FLAG -144 -96 pVdd
FLAG 272 -96 pVdd
FLAG 432 -96 pVdd
FLAG 16 0 Vdd
FLAG 16 -96 pVdd
FLAG 1024 176 pos
IOPIN 1024 176 In
FLAG 1184 176 pos
IOPIN 1184 176 In
FLAG 1104 272 pos
IOPIN 1104 272 In
FLAG 1264 272 pos
IOPIN 1264 272 In
FLAG 1424 272 pos
IOPIN 1424 272 In
FLAG 1584 272 pos
IOPIN 1584 272 In
FLAG 1760 272 pos
IOPIN 1760 272 In
FLAG 768 272 pos
IOPIN 768 272 In
FLAG 1904 272 pos
IOPIN 1904 272 In
FLAG 1344 176 pos
IOPIN 1344 176 In
FLAG 1504 176 pos
IOPIN 1504 176 In
FLAG 1104 384 neg
IOPIN 1104 384 In
FLAG 1264 384 neg
IOPIN 1264 384 In
FLAG 1424 384 neg
IOPIN 1424 384 In
FLAG 1584 384 neg
IOPIN 1584 384 In
FLAG 672 0 pos
IOPIN 672 0 In
FLAG 1840 80 neg
IOPIN 1840 80 In
FLAG 1024 -48 pos
IOPIN 1024 -48 In
FLAG 1184 -48 pos
IOPIN 1184 -48 In
FLAG 1344 -48 pos
IOPIN 1344 -48 In
FLAG 1504 -48 pos
IOPIN 1504 -48 In
FLAG 1808 384 Iout
IOPIN 1808 384 Out
FLAG -912 -400 Vdd
FLAG -912 -272 0
FLAG -912 -192 pVdd
FLAG -912 -64 0
FLAG -912 -608 pos
FLAG -912 -480 0
FLAG -768 -608 neg
FLAG -768 -480 0
SYMBOL cktsym\\nmos4 272 192 R0
SYMATTR InstName M1
SYMATTR Value2 l=1.2u w=120u
SYMBOL cktsym\\nmos4 16 192 M0
SYMATTR InstName M2
SYMATTR Value2 l=1.2u w=120u m=2
SYMBOL cktsym\\pmos4 16 0 M0
SYMATTR InstName M3
SYMATTR Value2 l=3u w=3u
SYMBOL cktsym\\pmos4 272 0 R0
SYMATTR InstName M4
SYMATTR Value2 l=3u w=3u
SYMBOL cktsym\\pmos4 -144 0 M0
SYMATTR InstName M5
SYMATTR Value2 l=3u w=9u
SYMBOL cktsym\\pmos4 432 0 R0
SYMATTR InstName M6
SYMATTR Value2 l=3u w=3u
SYMBOL cktsym\\nmos4 -144 192 M0
SYMATTR InstName M7
SYMATTR Value2 l=120u w=1.2u
SYMBOL cktsym\\nmos4 512 192 R0
SYMATTR InstName M8
SYMATTR Value2 l=3u w=3.9u
SYMBOL cktsym\\nmos4 16 320 R0
SYMATTR InstName M9
SYMATTR Value2 l=120u w=1.2u
SYMBOL cktsym\\ammeter1 432 64 R0
SYMATTR InstName V1
SYMBOL cktsym\\ammeter1 -144 64 R0
SYMATTR InstName V3
SYMBOL cktsym\\ammeter1 512 112 R0
SYMATTR InstName V2
SYMBOL cktsym\\pmos4 768 272 R0
SYMATTR InstName M10
SYMATTR Value2 l=3u w=3u
SYMBOL cktsym\\pmos4 1024 176 R270
SYMATTR InstName M11
SYMATTR Value2 l=3u w=3u
SYMBOL cktsym\\pmos4 1184 176 R270
SYMATTR InstName M12
SYMATTR Value2 l=3u w=3u
SYMBOL cktsym\\pmos4 1344 176 R270
SYMATTR InstName M13
SYMATTR Value2 l=3u w=3u
SYMBOL cktsym\\pmos4 1504 176 R270
SYMATTR InstName M14
SYMATTR Value2 l=3u w=3u
SYMBOL cktsym\\pmos4 1760 272 R0
SYMATTR InstName M15
SYMATTR Value2 l=3u w=3u
SYMBOL cktsym\\pmos4 1904 272 R0
SYMATTR InstName M16
SYMATTR Value2 l=3u w=3u
SYMBOL cktsym\\pmos4 1104 272 R0
SYMATTR InstName M17
SYMATTR Value2 l=3u w=3u
SYMBOL cktsym\\pmos4 1264 272 R0
SYMATTR InstName M18
SYMATTR Value2 l=3u w=3u
SYMBOL cktsym\\pmos4 1424 272 R0
SYMATTR InstName M19
SYMATTR Value2 l=3u w=3u
SYMBOL cktsym\\pmos4 1584 272 R0
SYMATTR InstName M20
SYMATTR Value2 l=3u w=3u
SYMBOL cktsym\\pmos4 1024 -48 R270
SYMATTR InstName M21
SYMATTR Value2 l=3u w=3u
SYMBOL cktsym\\pmos4 1184 -48 R270
SYMATTR InstName M22
SYMATTR Value2 l=3u w=3u
SYMBOL cktsym\\pmos4 1344 -48 R270
SYMATTR InstName M23
SYMATTR Value2 l=3u w=3u
SYMBOL cktsym\\pmos4 1504 -48 R270
SYMATTR InstName M24
SYMATTR Value2 l=3u w=3u
SYMBOL cktsym\\ammeter1 736 432 R0
SYMATTR InstName V4
SYMBOL cktsym\\vsource -912 -336 R0
WINDOW 123 0 0 Left 2
WINDOW 39 0 0 Left 2
SYMATTR Value PWL(0 0 1m 5)
SYMATTR InstName Vdd1
SYMBOL cktsym\\vsource -912 -128 R0
WINDOW 123 0 0 Left 2
WINDOW 39 0 0 Left 2
SYMATTR Value PWL(0 0 1m 5)
SYMATTR InstName pVdd1
SYMBOL cktsym\\vsource -912 -544 R0
WINDOW 123 0 0 Left 2
WINDOW 39 0 0 Left 2
SYMATTR Value PWL(0 0 1m 5)
SYMATTR InstName pos1
SYMBOL cktsym\\vsource -768 -544 R0
SYMATTR Value 0
SYMATTR InstName neg1
TEXT -320 288 Left 2 !.tran 0 20m 0 10u
TEXT 320 -448 Left 2 !.inc engr3426.sub
