Version 4
SHEET 1 2012 680
WIRE -432 -512 -432 -544
WIRE -272 -512 -272 -544
WIRE -16 -512 -16 -544
WIRE 144 -512 144 -544
WIRE -208 -464 -368 -464
WIRE 80 -464 -80 -464
WIRE -368 -448 -368 -464
WIRE -208 -448 -208 -464
WIRE -176 -448 -208 -448
WIRE -80 -448 -80 -464
WIRE -80 -448 -176 -448
WIRE 80 -448 80 -464
WIRE 480 -448 384 -448
WIRE 736 -384 736 -432
WIRE 736 -384 704 -384
WIRE 896 -384 896 -432
WIRE 896 -384 864 -384
WIRE 1056 -384 1056 -432
WIRE 1056 -384 1024 -384
WIRE 1216 -384 1216 -432
WIRE 1216 -384 1184 -384
WIRE 1616 -368 1552 -368
WIRE -272 -352 -272 -384
WIRE -176 -352 -176 -448
WIRE -176 -352 -272 -352
WIRE -16 -352 -16 -384
WIRE -16 -352 -96 -352
WIRE 368 -352 224 -352
WIRE -432 -336 -432 -368
WIRE -368 -336 -432 -336
WIRE 224 -336 224 -352
WIRE -432 -320 -432 -336
WIRE -272 -320 -272 -352
WIRE -16 -320 -16 -352
WIRE 480 -272 480 -448
WIRE 672 -272 672 -496
WIRE 672 -272 480 -272
WIRE 800 -272 800 -496
WIRE 816 -272 800 -272
WIRE 832 -272 832 -496
WIRE 832 -272 816 -272
WIRE 960 -272 960 -496
WIRE 976 -272 960 -272
WIRE 992 -272 992 -496
WIRE 992 -272 976 -272
WIRE 1120 -272 1120 -496
WIRE 1136 -272 1120 -272
WIRE 1152 -272 1152 -496
WIRE 1152 -272 1136 -272
WIRE 1280 -272 1280 -496
WIRE 1296 -272 1280 -272
WIRE 1472 -272 1296 -272
WIRE -368 -256 -368 -336
WIRE -96 -256 -96 -352
WIRE -96 -256 -208 -256
WIRE -80 -256 -96 -256
WIRE 160 -240 160 -256
WIRE 160 -240 128 -240
WIRE 480 -240 480 -272
WIRE 816 -240 816 -272
WIRE 976 -240 976 -272
WIRE 1136 -240 1136 -272
WIRE 1296 -240 1296 -272
WIRE 1472 -240 1472 -272
WIRE 1616 -240 1616 -368
WIRE 704 -208 704 -384
WIRE 736 -208 704 -208
WIRE 864 -208 864 -384
WIRE 896 -208 864 -208
WIRE 1024 -208 1024 -384
WIRE 1056 -208 1024 -208
WIRE 1184 -208 1184 -384
WIRE 1216 -208 1184 -208
WIRE 736 -192 736 -208
WIRE 736 -192 416 -192
WIRE 752 -192 736 -192
WIRE 896 -192 896 -208
WIRE 896 -192 752 -192
WIRE 912 -192 896 -192
WIRE 1056 -192 1056 -208
WIRE 1056 -192 912 -192
WIRE 1072 -192 1056 -192
WIRE 1216 -192 1216 -208
WIRE 1216 -192 1072 -192
WIRE 1232 -192 1216 -192
WIRE 1408 -192 1232 -192
WIRE 1552 -192 1408 -192
WIRE 416 -176 416 -192
WIRE 752 -176 752 -192
WIRE 912 -176 912 -192
WIRE 1072 -176 1072 -192
WIRE 1232 -176 1232 -192
WIRE 1408 -176 1408 -192
WIRE 1552 -176 1552 -192
WIRE -432 -144 -432 -192
WIRE -368 -128 -368 -256
WIRE -336 -128 -368 -128
WIRE 416 -80 416 -176
WIRE 448 -80 416 -80
WIRE 480 -80 480 -112
WIRE 480 -80 448 -80
WIRE 816 -64 816 -112
WIRE 976 -64 976 -112
WIRE 1136 -64 1136 -112
WIRE 1296 -64 1296 -112
WIRE 1472 -64 1472 -112
WIRE 1520 -64 1472 -64
WIRE 1552 -64 1520 -64
WIRE 1616 -64 1616 -112
WIRE 1616 -64 1552 -64
WIRE -368 -16 -368 -128
WIRE 128 -16 128 -240
WIRE 128 -16 -368 -16
WIRE 368 -16 368 -352
WIRE 384 -16 368 -16
WIRE 448 -16 448 -80
WIRE 384 0 384 -16
WIRE 448 0 384 0
FLAG -272 -256 0
FLAG -16 -256 0
FLAG -16 -448 Vdd
FLAG -432 -448 Vdd
FLAG 144 -448 Vdd
FLAG -432 -256 0
FLAG -432 -144 0
FLAG 224 -256 0
FLAG -16 -192 0
FLAG 224 -192 0
FLAG -272 -64 0
FLAG -272 -128 0
FLAG -432 -544 pVdd
FLAG -16 -544 pVdd
FLAG 144 -544 pVdd
FLAG -272 -448 Vdd
FLAG -272 -544 pVdd
FLAG 736 -272 pos
IOPIN 736 -272 In
FLAG 896 -272 pos
IOPIN 896 -272 In
FLAG 816 -176 pos
IOPIN 816 -176 In
FLAG 976 -176 pos
IOPIN 976 -176 In
FLAG 1136 -176 pos
IOPIN 1136 -176 In
FLAG 1296 -176 pos
IOPIN 1296 -176 In
FLAG 1472 -176 pos
IOPIN 1472 -176 In
FLAG 480 -176 pos
IOPIN 480 -176 In
FLAG 1616 -176 pos
IOPIN 1616 -176 In
FLAG 1056 -272 pos
IOPIN 1056 -272 In
FLAG 1216 -272 pos
IOPIN 1216 -272 In
FLAG 816 -64 neg
IOPIN 816 -64 In
FLAG 976 -64 neg
IOPIN 976 -64 In
FLAG 1136 -64 neg
IOPIN 1136 -64 In
FLAG 1296 -64 neg
IOPIN 1296 -64 In
FLAG 384 -448 pos
IOPIN 384 -448 In
FLAG 1552 -368 neg
IOPIN 1552 -368 In
FLAG 736 -496 pos
IOPIN 736 -496 In
FLAG 896 -496 pos
IOPIN 896 -496 In
FLAG 1056 -496 pos
IOPIN 1056 -496 In
FLAG 1216 -496 pos
IOPIN 1216 -496 In
FLAG 1520 -64 Iout
IOPIN 1520 -64 Out
FLAG -912 -400 Vdd
FLAG -912 -272 0
FLAG -912 -192 pVdd
FLAG -912 -64 0
FLAG -912 -608 pos
FLAG -912 -480 0
FLAG -768 -608 neg
FLAG -768 -480 0
FLAG 1552 -48 0
SYMBOL cktsym\\nmos4 -16 -256 R0
SYMATTR InstName M1
SYMATTR Value2 l=1.2u w=120u
SYMBOL cktsym\\nmos4 -272 -256 M0
SYMATTR InstName M2
SYMATTR Value2 l=1.2u w=120u m=2
SYMBOL cktsym\\pmos4 -272 -448 M0
SYMATTR InstName M3
SYMATTR Value2 l=3u w=3u
SYMBOL cktsym\\pmos4 -16 -448 R0
SYMATTR InstName M4
SYMATTR Value2 l=3u w=3u
SYMBOL cktsym\\pmos4 -432 -448 M0
SYMATTR InstName M5
SYMATTR Value2 l=3u w=9u
SYMBOL cktsym\\pmos4 144 -448 R0
SYMATTR InstName M6
SYMATTR Value2 l=3u w=3u
SYMBOL cktsym\\nmos4 -432 -256 M0
SYMATTR InstName M7
SYMATTR Value2 l=120u w=1.2u
SYMBOL cktsym\\nmos4 224 -256 R0
SYMATTR InstName M8
SYMATTR Value2 l=3u w=3.9u
SYMBOL cktsym\\nmos4 -272 -128 R0
SYMATTR InstName M9
SYMATTR Value2 l=120u w=1.2u
SYMBOL cktsym\\ammeter1 144 -384 R0
SYMATTR InstName V1
SYMBOL cktsym\\ammeter1 -432 -384 R0
SYMATTR InstName V3
SYMBOL cktsym\\ammeter1 224 -336 R0
SYMATTR InstName V2
SYMBOL cktsym\\pmos4 480 -176 R0
SYMATTR InstName M10
SYMATTR Value2 l=3u w=3u
SYMBOL cktsym\\pmos4 736 -272 R270
SYMATTR InstName M11
SYMATTR Value2 l=3u w=3u
SYMBOL cktsym\\pmos4 896 -272 R270
SYMATTR InstName M12
SYMATTR Value2 l=3u w=3u
SYMBOL cktsym\\pmos4 1056 -272 R270
SYMATTR InstName M13
SYMATTR Value2 l=3u w=3u
SYMBOL cktsym\\pmos4 1216 -272 R270
SYMATTR InstName M14
SYMATTR Value2 l=3u w=3u
SYMBOL cktsym\\pmos4 1472 -176 R0
SYMATTR InstName M15
SYMATTR Value2 l=3u w=3u
SYMBOL cktsym\\pmos4 1616 -176 R0
SYMATTR InstName M16
SYMATTR Value2 l=3u w=3u
SYMBOL cktsym\\pmos4 816 -176 R0
SYMATTR InstName M17
SYMATTR Value2 l=3u w=3u
SYMBOL cktsym\\pmos4 976 -176 R0
SYMATTR InstName M18
SYMATTR Value2 l=3u w=3u
SYMBOL cktsym\\pmos4 1136 -176 R0
SYMATTR InstName M19
SYMATTR Value2 l=3u w=3u
SYMBOL cktsym\\pmos4 1296 -176 R0
SYMATTR InstName M20
SYMATTR Value2 l=3u w=3u
SYMBOL cktsym\\pmos4 736 -496 R270
SYMATTR InstName M21
SYMATTR Value2 l=3u w=3u
SYMBOL cktsym\\pmos4 896 -496 R270
SYMATTR InstName M22
SYMATTR Value2 l=3u w=3u
SYMBOL cktsym\\pmos4 1056 -496 R270
SYMATTR InstName M23
SYMATTR Value2 l=3u w=3u
SYMBOL cktsym\\pmos4 1216 -496 R270
SYMATTR InstName M24
SYMATTR Value2 l=3u w=3u
SYMBOL cktsym\\ammeter1 448 -16 R0
SYMATTR InstName V4
SYMBOL cktsym\\vsource -912 -336 R0
WINDOW 123 0 0 Left 2
WINDOW 39 0 0 Left 2
SYMATTR Value PWL(0 0 1m 5)
SYMATTR InstName Vdd1
SYMBOL cktsym\\vsource -912 -128 R0
WINDOW 123 0 0 Left 2
WINDOW 39 0 0 Left 2
SYMATTR Value PWL(0 0 1m 5)
SYMATTR InstName pVdd1
SYMBOL cktsym\\vsource -912 -544 R0
WINDOW 123 0 0 Left 2
WINDOW 39 0 0 Left 2
SYMATTR Value PWL(0 0 1m 5)
SYMATTR InstName pos1
SYMBOL cktsym\\vsource -768 -544 R0
SYMATTR Value 0
SYMATTR InstName neg1
SYMBOL cktsym\\ammeter2 1552 -64 R0
SYMATTR InstName V5
TEXT -776 -216 Left 2 !.tran 0 20m 0 10u
TEXT -736 -624 Left 2 !.inc engr3426.sub
